read me txt for test
new line.
nmmmmmmmmmhhjjjjj
fffffff